Version 4
SHEET 1 880 824
WIRE -96 -368 -544 -368
WIRE 16 -368 -96 -368
WIRE -64 -336 -544 -336
WIRE 16 -336 -64 -336
WIRE -32 -304 -544 -304
WIRE 16 -304 -32 -304
WIRE 16 -272 -336 -272
WIRE -512 -240 -544 -240
WIRE -224 -224 -336 -224
WIRE -512 -208 -544 -208
WIRE -272 -176 -336 -176
WIRE -96 64 -96 -368
WIRE 16 64 -96 64
WIRE -64 96 -64 -336
WIRE 16 96 -64 96
WIRE -32 128 -32 -304
WIRE 16 128 -32 128
WIRE -224 160 -224 -224
WIRE 16 160 -224 160
WIRE -96 512 -96 64
WIRE 16 512 -96 512
WIRE -64 544 -64 96
WIRE 16 544 -64 544
WIRE -32 576 -32 128
WIRE 16 576 -32 576
WIRE -272 608 -272 -176
WIRE 16 608 -272 608
SYMBOL CRBK\\Digitaltechnik\\4051_nosim_easyconnect 80 0 R0
SYMATTR InstName IC1
SYMBOL CRBK\\Digitaltechnik\\4051_nosim_easyconnect 80 448 R0
SYMATTR InstName IC2
SYMBOL CRBK\\Digitaltechnik\\4051_nosim_easyconnect 80 -432 R0
SYMATTR InstName IC3
SYMBOL CRBK\\Leerblöcke\\2In3OutEinfachtext -448 -320 R0
WINDOW 0 -60 16 Invisible 2
SYMATTR InstName U3
SYMATTR Value Schaltnetz
TEXT -736 -400 Left 2 ;Mikrocontroller
RECTANGLE Normal -544 0 -800 -464
