Version 4
SHEET 1 1480 680
WIRE -112 -64 -112 -96
WIRE -16 -64 -16 -96
WIRE 96 -64 96 -96
WIRE 752 -48 608 -48
WIRE 912 -48 752 -48
WIRE 1200 -48 912 -48
WIRE 608 32 608 -48
WIRE 752 32 752 -48
WIRE 912 32 912 -48
WIRE -112 48 -112 16
WIRE -16 48 -16 16
WIRE 96 48 96 16
WIRE 912 144 912 96
WIRE 912 144 368 144
WIRE 1200 144 1200 -48
WIRE 752 176 752 96
WIRE 752 176 368 176
WIRE 608 208 608 96
WIRE 608 208 368 208
WIRE 608 272 608 208
WIRE 752 272 752 176
WIRE 912 272 912 144
WIRE 608 400 608 336
WIRE 752 400 752 336
WIRE 752 400 608 400
WIRE 912 400 912 336
WIRE 912 400 752 400
WIRE 1056 400 1056 208
WIRE 1056 400 912 400
WIRE 1200 400 1200 224
WIRE 1200 400 1056 400
WIRE 1200 416 1200 400
FLAG -112 48 0
FLAG -112 -96 L1
IOPIN -112 -96 Out
FLAG -16 48 0
FLAG -16 -96 L2
IOPIN -16 -96 Out
FLAG 96 48 0
FLAG 96 -96 L3
IOPIN 96 -96 Out
FLAG 368 144 L1
IOPIN 368 144 In
FLAG 368 176 L2
IOPIN 368 176 In
FLAG 368 208 L3
IOPIN 368 208 In
FLAG 1200 416 0
SYMBOL diode 624 96 R180
WINDOW 0 24 64 Left 2
WINDOW 3 24 0 Left 2
SYMATTR InstName D1
SYMBOL diode 624 336 R180
WINDOW 0 24 64 Left 2
WINDOW 3 24 0 Left 2
SYMATTR InstName D2
SYMBOL CRBK\\Quellen\\V -112 -80 R0
WINDOW 3 24 96 Invisible 2
WINDOW 123 0 0 Left 2
WINDOW 39 0 0 Left 2
SYMATTR InstName V1
SYMATTR Value SINE(0 325 50)
SYMBOL CRBK\\Quellen\\V -16 -80 R0
WINDOW 3 24 96 Invisible 2
WINDOW 123 0 0 Left 2
WINDOW 39 0 0 Left 2
SYMATTR InstName V2
SYMATTR Value SINE(0 325 50 0 0 120)
SYMBOL CRBK\\Quellen\\V 96 -80 R0
WINDOW 3 24 96 Invisible 2
WINDOW 123 0 0 Left 2
WINDOW 39 0 0 Left 2
SYMATTR InstName V3
SYMATTR Value SINE(0 325 50 0 0 240)
SYMBOL diode 768 96 R180
WINDOW 0 24 64 Left 2
WINDOW 3 24 0 Left 2
SYMATTR InstName D3
SYMBOL diode 768 336 R180
WINDOW 0 24 64 Left 2
WINDOW 3 24 0 Left 2
SYMATTR InstName D4
SYMBOL diode 928 96 R180
WINDOW 0 24 64 Left 2
WINDOW 3 24 0 Left 2
SYMATTR InstName D5
SYMBOL diode 928 336 R180
WINDOW 0 24 64 Left 2
WINDOW 3 24 0 Left 2
SYMATTR InstName D6
SYMBOL CRBK\\R 1184 128 R0
SYMATTR InstName R1
SYMATTR Value 1000
SYMBOL cap 1040 144 R0
SYMATTR InstName C1
SYMATTR Value 470µ
TEXT -184 410 Left 2 !.tran 0 40m 0
